Circuit: * C:\Users\Carlos\Google Drive\ELCO\Draft1.asc

Limiting rise time of source v7 to 0.1
Limiting fall time of source v7 to 0.1
Limiting rise time of source v6 to 0.0001
Limiting fall time of source v6 to 0.0001
Limiting rise time of source v5 to 0.0001
Limiting fall time of source v5 to 0.0001
Limiting rise time of source v4 to 0.0001
Limiting fall time of source v4 to 0.0001
Limiting rise time of source v2 to 0.0001
Limiting fall time of source v2 to 0.0001
Limiting rise time of source v3 to 0.0001
Limiting fall time of source v3 to 0.0001
WARNING: Less than two connections to node N018.  This node is used by A10.
Direct Newton iteration for .op point succeeded.
Ignoring empty pin current: Ix(u2:1)
Ignoring empty pin current: Ix(u2:2)
Ignoring empty pin current: Ix(u4:1)
Ignoring empty pin current: Ix(u4:2)
Ignoring empty pin current: Ix(u5:1)
Ignoring empty pin current: Ix(u5:2)
Ignoring empty pin current: Ix(u2:1)
Ignoring empty pin current: Ix(u2:2)
Ignoring empty pin current: Ix(u4:1)
Ignoring empty pin current: Ix(u4:2)
Ignoring empty pin current: Ix(u5:1)
Ignoring empty pin current: Ix(u5:2)

Date: Wed Apr  8 17:04:45 2020
Total elapsed time: 170.249 seconds.

tnom = 27
temp = 27
method = modified trap
totiter = 30666815
traniter = 30666802
tranpoints = 6463818
accept = 4973714
rejected = 1490104
matrix size = 50
fillins = 2
solver = Normal
Thread vector: 4.5/2.2[2] 1.4/1.9[1] 1.0/1.3[1] 0.2/0.7[1]  2592/500
Matrix Compiler1: 1.33 KB object code size  0.4/0.2/[0.1]
Matrix Compiler2: off  [0.2]/0.4/0.2

